/*--------------------------------*- C++ -*----------------------------------*\
| =========                 |                                                 |
| \\      /  F ield         | OpenFOAM: The Open Source CFD Toolbox           |
|  \\    /   O peration     | Version:  5                                     |
|   \\  /    A nd           | Web:      www.OpenFOAM.org                      |
|    \\/     M anipulation  |                                                 |
\*---------------------------------------------------------------------------*/
FoamFile
{
    version     2.0;
    format      ascii;
    class       polyBoundaryMesh;
    object      boundary;
}
// * * * * * * * * * * * * * * * * * * * * * * * * * * * * * * * * * * * * * //
3
(
inf
{
    type patch;
    physicalType inlet;
    nFaces 294;
    startFace 21254;
}

walls
{
    type wall;
    physicalType wall;
    nFaces 78;
    startFace 21548;
}

frontAndBack
{
    type empty;
    physicalType empty;
    nFaces 21440;
    startFace 21626;
}
)

// ************************************************************************* //
