/*--------------------------------*- C++ -*----------------------------------*\
| =========                 |                                                 |
| \\      /  F ield         | OpenFOAM: The Open Source CFD Toolbox           |
|  \\    /   O peration     | Version:  5                                     |
|   \\  /    A nd           | Web:      www.OpenFOAM.org                      |
|    \\/     M anipulation  |                                                 |
\*---------------------------------------------------------------------------*/
FoamFile
{
    version     2.0;
    format      ascii;
    class       dictionary;
    location    "system";
    object      controlDict;
}
// * * * * * * * * * * * * * * * * * * * * * * * * * * * * * * * * * * * * * //

application     shapeOptimizationFoam;

startFrom       latestTime;

startTime       0;

stopAt          endTime;

endTime         2000000;

deltaT          1;

writeControl    timeStep;

writeInterval   50;

purgeWrite      0;

writeFormat     ascii;

writePrecision  6;

writeCompression off;

timeFormat      general;

timePrecision   6;

runTimeModifiable true;

functions
{
	forces_obstacle
	{
		type		forces;
		libs		("libforces.so");
		enabled		true;
		writeControl    timeStep;
		writeInterval   1;
		//timeStart	0.1;
		//timeEnd		4;
		//startFrom	startTime;
		//startTime	0.5;
		//writeControl	runTime;
		//writeInterval	0.5;
		log		yes;
		patches	("walls");
		p	p;
		U	U;
		rho	rhoInf;
		rhoInf	1;
		CofR	(0 0 0);
	}

	forces_coeffs
	    {
		type            forceCoeffs;
		libs            ("libforces.so");
		enabled		true;
		writeControl    timeStep;
		writeInterval   1;

		patches
		(
		    walls
		);

		log         true;
		rho	    rhoInf;
		rhoInf      1;
		CofR        (0 0 0);
		liftDir     (0 1 0);
		dragDir     (1 0 0);
		pitchAxis   (0 0 1);
		magUInf     1e-3;
		lRef        0.1;
		Aref        0.001;
	    }
}


// ************************************************************************* //
