/*--------------------------------*- C++ -*----------------------------------*\
| =========                 |                                                 |
| \\      /  F ield         | OpenFOAM: The Open Source CFD Toolbox           |
|  \\    /   O peration     | Version:  5                                     |
|   \\  /    A nd           | Web:      www.OpenFOAM.org                      |
|    \\/     M anipulation  |                                                 |
\*---------------------------------------------------------------------------*/
FoamFile
{
    version     2.0;
    format      ascii;
    class       dictionary;
    location    "system";
    object      fvSchemes;
}
// * * * * * * * * * * * * * * * * * * * * * * * * * * * * * * * * * * * * * //

ddtSchemes
{
    default         steadyState;
}

gradSchemes
{
    default         Gauss linear;
}

divSchemes
{
    default         Gauss linear;

    div(phi,U)      			bounded Gauss linearUpwind grad(U);
    div(-phi,V)      			bounded Gauss linearUpwind grad(V);

    div(phi,k)      			bounded Gauss linearUpwind grad(k);
    div(phi,epsilon) 			bounded Gauss linearUpwind grad(epsilon);
    div(phi,nuTilda) 			bounded Gauss linearUpwind grad(nuTilda);

    div((nuEff*dev2(T(grad(U))))) 	Gauss linear;
    div((nuEff*dev2(T(grad(V))))) 	Gauss linear;
}

laplacianSchemes
{
    default         Gauss linear corrected;

    laplacian(diffusivity,cellDisplacement)	Gauss linear corrected;
}

interpolationSchemes
{
    default         linear;
}

snGradSchemes
{
    default         corrected;
}

wallDist
{
    method meshWave;
}


// ************************************************************************* //
