/*--------------------------------*- C++ -*----------------------------------*\
| =========                 |                                                 |
| \\      /  F ield         | OpenFOAM: The Open Source CFD Toolbox           |
|  \\    /   O peration     | Version:  5                                     |
|   \\  /    A nd           | Web:      www.OpenFOAM.org                      |
|    \\/     M anipulation  |                                                 |
\*---------------------------------------------------------------------------*/
FoamFile
{
    version     2.0;
    format      ascii;
    class       dictionary;
    location    "system";
    object      fvSolution;
}
// * * * * * * * * * * * * * * * * * * * * * * * * * * * * * * * * * * * * * //

solvers
{
    "(p|q)"
    {
        solver          GAMG; //PCG;
	//preconditioner  DIC;
        tolerance       1e-08;
        relTol          0.1;
        smoother        GaussSeidel;
    }

    "(U|V)"
    {
        solver          smoothSolver;
        smoother        GaussSeidel;
        nSweeps         2;
        tolerance       1e-08;
        relTol          0.1;
    }

    "(k|epsilon|nuTilda)"
    {
        solver          smoothSolver;
        smoother        GaussSeidel;
        nSweeps         2;
        tolerance       1e-08;
        relTol          0.1;
    }

    cellDisplacement
    {
        solver          PCG;
        preconditioner  DIC;
        tolerance       1e-08;
        relTol          0;
    }
}

SIMPLE
{
    nNonOrthogonalCorrectors 3;
    //consistent	yes;
    pRefCell        0;
    pRefValue       0;
    qRefCell	    0;
    qRefValue       0;

    residualControl
    {
        p               1e-5;
        U               1e-5;
 	q		1e-5;
	V		1e-5;
	k		1e-5;
	epsilon		1e-5;
        nuTilda         1e-5;
    }
}

relaxationFactors
{
    fields
    {
        "(p|q)"			0.3;
    }
    equations
    {
        "(U|V)"         	0.7;
        "(nuTilda|k|epsilon)"	0.7;
    }
}


// ************************************************************************* //
