/*--------------------------------*- C++ -*----------------------------------*\
| =========                 |                                                 |
| \\      /  F ield         | OpenFOAM: The Open Source CFD Toolbox           |
|  \\    /   O peration     | Version:  2.2.1                                 |
|   \\  /    A nd           | Web:      www.OpenFOAM.org                      |
|    \\/     M anipulation  |                                                 |
\*---------------------------------------------------------------------------*/
FoamFile
{
    version     2.0;
    format      ascii;
    class       dictionary;
    location    "constant";
    object      dynamicMeshDict;
}
// * * * * * * * * * * * * * * * * * * * * * * * * * * * * * * * * * * * * * //

dynamicFvMesh   dynamicMotionSolverFvMesh;

motionSolverLibs ( "libfvMotionSolvers.so" );

/*
solver          displacementLaplacian;
displacementLaplacianCoeffs
{
    diffusivity     quadratic inversePointDistance (walls);
    //diffusivity     inversePointDistance (walls);
    //diffusivity     quadratic inversePointDistance (deformedWall topWall bottomWall rightWall leftWall);
    //diffusivity  uniform;
}
*/

motionSolver 	displacementSBRStress;

displacementSBRStressCoeffs
{
    diffusivity  quadratic inverseDistance (walls);
    // diffusivity  	uniform;
    // diffusivity  	directional (1 200 0);
    // diffusivity  	motionDirectional (1 1000 0);
    // diffusivity  	file motionDiffusivity;
    // diffusivity  	quadratic inverseFaceDistance (deformedWall);
    // diffusivity  	quadratic inverseDistance (deformedWall);
    //diffusivity  	quadratic inversePointDistance (deformedWall);
    // diffusivity	inversePointDistance (deformedWall);
}


// ************************************************************************* //
