/*--------------------------------*- C++ -*----------------------------------*\
| =========                 |                                                 |
| \\      /  F ield         | OpenFOAM: The Open Source CFD Toolbox           |
|  \\    /   O peration     | Version:  2.2.1                                 |
|   \\  /    A nd           | Web:      www.OpenFOAM.org                      |
|    \\/     M anipulation  |                                                 |
\*---------------------------------------------------------------------------*/
FoamFile
{
    version     2.0;
    format      ascii;
    class       dictionary;
    location    "constant";
    object      dynamicMeshDict;
}
// * * * * * * * * * * * * * * * * * * * * * * * * * * * * * * * * * * * * * //

dynamicFvMesh   dynamicMotionSolverFvMesh;

motionSolverLibs ( "libfvMotionSolvers.so" );

/*
solver          displacementLaplacian;
displacementLaplacianCoeffs
{
    diffusivity     quadratic inversePointDistance (walls);
    //diffusivity     inversePointDistance (walls);
    //diffusivity  uniform;
}
*/

motionSolver 	displacementSBRStress;

displacementSBRStressCoeffs
{
    //diffusivity  quadratic inverseDistance (walls);
    diffusivity  quadratic inverseFaceDistance (walls);
    //diffusivity  quadratic inversePointDistance(walls);
    // diffusivity  	uniform;
}


// ************************************************************************* //
